%nprocshared=8
%chk=D:\backups\Depo1\ChemChem\3\MAC_sunum\MAC1\MAC1.chk
# opt freq rb3lyp/6-31g(d,p) scrf=check genchk

MAC_GO

0 1
 C                  3.17841156    1.40050998   -0.90947960
 C                  3.12516139    0.21948908   -0.28970409
 H                  4.09851973    1.75693903   -1.36177514
 H                  2.32434627    2.06999177   -0.96952864
 H                  4.01058055   -0.40246650   -0.19513299
 O                  2.07459999   -1.14747366    1.33758220
 C                  1.93769292   -0.34724322    0.41702974
 O                 -2.52306487   -1.44712016   -0.23488120
 N                  0.70721492    0.09259495   -0.00367168
 S                 -1.92946605    1.95188597   -0.19156223
 C                 -0.51247686   -0.37809919    0.60783423
 H                 -2.86155537    1.14859007   -0.74235223
 H                  0.62949268    0.64685889   -0.84351444
 C                 -1.39991941    0.76542206    1.11785767
 H                 -0.18663613   -0.98111647    1.46744406
 O                 -0.53992824   -2.05312374   -1.11205433
 C                 -1.31684531   -1.32840963   -0.28454899
 H                 -1.13842534   -2.65129273   -1.59159607
 H                 -0.83434890    1.36055117    1.83715810
 H                 -2.28602190    0.36533062    1.61088761

