%nprocshared=8
%chk=Preview_31ihs.chk
#p opt=tight freq b3lyp/6-31g(d) guess=save geom=connectivity

MATrp OptFreq tight B3LYP/6-31Gd

0 1
 N                  1.89041900    0.43518700    0.00467600
 C                  1.02163400    1.12570000   -0.92807900
 H                  1.65812400    1.69333700   -1.61331100
 C                  0.10841800    2.12590500   -0.23426200
 O                 -0.54394300    2.95333800   -0.83323000
 C                  0.17560000    0.14838700   -1.80786900
 H                 -0.41602100    0.75942200   -2.49883700
 H                  0.90047200   -0.41103600   -2.40721600
 C                 -0.70243400   -0.79535700   -1.03975700
 C                 -0.36646400   -2.07065000   -0.65472700
 H                  0.54161900   -2.62674300   -0.84572800
 C                 -2.04070900   -0.56321600   -0.54193300
 N                 -1.40320400   -2.64295000    0.05789800
 H                 -1.42013700   -3.59094200    0.39980400
 C                 -2.44903100   -1.74594200    0.13627600
 C                 -2.94200300    0.51596700   -0.61601500
 H                 -2.66292400    1.43294600   -1.12658600
 C                 -3.70657000   -1.87218300    0.73592600
 H                 -3.99884600   -2.78546400    1.24820900
 C                 -4.19250300    0.39383400   -0.02151200
 H                 -4.89543300    1.22064300   -0.07836600
 C                 -4.57117300   -0.78753100    0.64901100
 H                 -5.55672400   -0.85329300    1.10190200
 O                  0.06513400    1.96077800    1.10445800
 H                  1.54000800    0.28370900    0.93777000
 C                 -0.86409400    2.80890200    1.80612500
 H                 -0.69935200    2.60829500    2.86495400
 H                 -0.67134600    3.85864900    1.57443200
 H                 -1.88725500    2.55219400    1.52065400
 C                  3.09614300   -0.07360100   -0.39147100
 C                  3.89039100   -0.78594200    0.67763500
 C                  5.07278200   -1.29611200    0.31686300
 C                  3.34479300   -0.89739900    2.08133300
 O                  3.85441258   -0.17702669   -1.39178168
 H                  5.70813000   -1.82104100    1.02491200
 H                  5.06873942   -0.95982731   -0.85951332
 H                  4.04399600   -1.43599400    2.72728500
 H                  3.17193900    0.08960700    2.53058500
 H                  2.38899200   -1.43882500    2.10636900

 1 2 1.0 25 1.0 30 1.5
 2 3 1.0 4 1.0 6 1.0
 3
 4 5 2.0 24 1.0
 5
 6 7 1.0 8 1.0 9 1.0
 7
 8
 9 10 2.0 12 1.5
 10 11 1.0 13 1.0
 11
 12 15 1.5 16 1.5
 13 14 1.0 15 1.5
 14
 15 18 1.5
 16 17 1.0 20 1.5
 17
 18 19 1.0 22 1.5
 19
 20 21 1.0 22 1.5
 21
 22 23 1.0
 23
 24 26 1.0
 25
 26 27 1.0 28 1.0 29 1.0
 27
 28
 29
 30 31 1.0 34 2.0
 31 32 2.0 33 1.0
 32 35 1.0 36 1.0
 33 37 1.0 38 1.0 39 1.0
 34 36 0.5
 35
 36
 37
 38
 39

