%chk=D:\backups\Depo1\ChemChem\3\MAC_sunum\MAC2.chk
%nprocshared=8
# opt freq b3lyp/6-31g(d,p)

MAC_GO

0 1
 C                  3.17851200   -1.39877200    0.91234700
 C                  3.12464200   -0.22026000    0.28658300
 H                  4.09926400   -1.75299400    1.36701200
 H                  2.32531000   -2.07021400    0.97613500
 H                  4.01044600    0.40173400    0.18993900
 O                  2.07516500    1.14294900   -1.34474200
 C                  1.93775800    0.34346100   -0.42374100
 O                 -2.51238800    1.47659200    0.22441900
 N                  0.70672100   -0.10025400   -0.00645500
 S                 -1.93742800   -1.94859100    0.19371100
 C                 -0.51415000    0.37760700   -0.61038400
 H                 -2.87724700   -1.15022200    0.74253800
 H                  0.62953200   -0.64331000    0.84211400
 C                 -1.40974700   -0.76236900   -1.11659900
 H                 -0.19020400    0.97778000   -1.47262600
 O                 -0.52782600    2.02722400    1.13564200
 C                 -1.30989300    1.33152900    0.28640500
 H                 -1.12305300    2.63236700    1.61793900
 H                 -0.84857400   -1.35884300   -1.83948600
 H                 -2.29601100   -0.35835500   -1.60796100

