%nprocshared=8
%chk=D:\backups\Depo1\ChemChem\3\out\MATrp\MATrp_D8\MATrp_D8.chk
#p opt=tight freq b3lyp/6-31g(d,p) guess=save geom=connectivity

MATrp OptFreq tight B3LYP/6-31Gd

0 1
 N                  1.89041900    0.43518700    0.00467600
 C                  1.02163400    1.12570000   -0.92807900
 H                  0.51217489    0.36617081   -1.52844639
 C                  1.79741418    2.01123664   -1.89231211
 O                  1.30022916    2.51168495   -2.87787868
 C                 -0.09476709    1.95777215   -0.21656707
 H                 -0.71554838    2.40844999   -0.99908609
 H                 -0.71575720    1.22723500    0.31097164
 C                  0.40550256    3.00112615    0.73880469
 C                  0.58297080    2.83242659    2.09067068
 H                  0.37935880    1.96562403    2.70510621
 C                  0.81118920    4.35827745    0.44510950
 N                  1.08140112    3.99140074    2.65506207
 H                  1.24319757    4.13599712    3.63933290
 C                  1.22364636    4.94964322    1.67217947
 C                  0.85045686    5.13934264   -0.72572361
 H                  0.54214098    4.71963833   -1.67872306
 C                  1.67169829    6.27221108    1.75575562
 H                  1.98113895    6.70481024    2.70393586
 C                  1.29486271    6.45398626   -0.64624958
 H                  1.32370542    7.06466014   -1.54469356
 C                  1.70278182    7.01503584    0.58152918
 H                  2.04321765    8.04651140    0.61165036
 O                  3.07437422    2.21822887   -1.50781380
 H                  2.11325085   -0.52724292   -0.19650174
 C                  3.82886060    3.13490155   -2.32364288
 H                  4.84458143    3.10841122   -1.92853352
 H                  3.80963604    2.81894798   -3.36892081
 H                  3.40831715    4.13978579   -2.23645358
 C                  2.46050430    1.08926791    1.06143943
 C                  3.35939004    0.25386899    1.94198489
 C                  3.93268008    0.86923215    2.98176614
 C                  3.57772809   -1.20834019    1.63418509
 O                  2.24395310    2.28166766    1.27455853
 H                  4.59069397    0.34077480    3.66609171
 H                  3.74278678    1.92195493    3.16269738
 H                  4.24815307   -1.66316619    2.36895516
 H                  2.63604385   -1.77299916    1.65085120
 H                  4.02780864   -1.35432581    0.64249958

 1 2 1.0 25 1.0 30 1.5
 2 3 1.0 4 1.0 6 1.0
 3
 4 5 2.0 24 1.0
 5
 6 7 1.0 8 1.0 9 1.0
 7
 8
 9 10 2.0 12 1.5
 10 11 1.0 13 1.0
 11
 12 15 1.5 16 1.5
 13 14 1.0 15 1.5
 14
 15 18 1.5
 16 17 1.0 20 1.5
 17
 18 19 1.0 22 1.5
 19
 20 21 1.0 22 1.5
 21
 22 23 1.0
 23
 24 26 1.0
 25
 26 27 1.0 28 1.0 29 1.0
 27
 28
 29
 30 31 1.0 34 2.0
 31 32 2.0 33 1.0
 32 35 1.0 36 1.0
 33 37 1.0 38 1.0 39 1.0
 34
 35
 36
 37
 38
 39