%nprocshared=8
%chk=D:\backups\Depo1\ChemChem\3\out\MATrp\MATrp_D7\MATrp_D7.chk
#p opt=tight freq b3lyp/6-31g(d,p) guess=save geom=connectivity

MATrp OptFreq tight B3LYP/6-31Gd

0 1
 N                  1.89041900    0.43518700    0.00467600
 C                  1.02163400    1.12570000   -0.92807900
 H                  1.65812400    1.69333700   -1.61331100
 C                  0.10841800    2.12590500   -0.23426200
 O                 -0.54394300    2.95333800   -0.83323000
 C                  0.17560000    0.14838700   -1.80786900
 H                 -0.41602100    0.75942200   -2.49883700
 H                  0.90047200   -0.41103600   -2.40721600
 C                 -0.70243400   -0.79535700   -1.03975700
 C                 -0.36646400   -2.07065000   -0.65472700
 H                  0.54161900   -2.62674300   -0.84572800
 C                 -2.04070900   -0.56321600   -0.54193300
 N                 -1.40320400   -2.64295000    0.05789800
 H                 -1.42013700   -3.59094200    0.39980400
 C                 -2.44903100   -1.74594200    0.13627600
 C                 -2.94200300    0.51596700   -0.61601500
 H                 -2.66292400    1.43294600   -1.12658600
 C                 -3.70657000   -1.87218300    0.73592600
 H                 -3.99884600   -2.78546400    1.24820900
 C                 -4.19250300    0.39383400   -0.02151200
 H                 -4.89543300    1.22064300   -0.07836600
 C                 -4.57117300   -0.78753100    0.64901100
 H                 -5.55672400   -0.85329300    1.10190200
 O                  0.06513400    1.96077800    1.10445800
 H                  1.76255963   -0.55967864    0.10612648
 C                 -0.86409400    2.80890200    1.80612500
 H                 -0.69935200    2.60829500    2.86495400
 H                 -0.67134600    3.85864900    1.57443200
 H                 -1.88725500    2.55219400    1.52065400
 C                  2.90377526    1.08938171    0.64865302
 C                  3.74380012    0.24466645    1.57712575
 C                  4.74416881    0.85861373    2.21807000
 C                  3.43906157   -1.22404778    1.75171337
 O                  3.10609974    2.29115799    0.47856509
 H                  5.39420544    0.32499331    2.90600354
 H                  4.92187652    1.91727946    2.06101050
 H                  4.13597764   -1.68310067    2.45868002
 H                  2.42305690   -1.38629365    2.13550693
 H                  3.52111098   -1.77381552    0.80390126

 1 2 1.0 25 1.0 30 1.5
 2 3 1.0 4 1.0 6 1.0
 3
 4 5 2.0 24 1.0
 5
 6 7 1.0 8 1.0 9 1.0
 7
 8
 9 10 2.0 12 1.5
 10 11 1.0 13 1.0
 11
 12 15 1.5 16 1.5
 13 14 1.0 15 1.5
 14
 15 18 1.5
 16 17 1.0 20 1.5
 17
 18 19 1.0 22 1.5
 19
 20 21 1.0 22 1.5
 21
 22 23 1.0
 23
 24 26 1.0
 25
 26 27 1.0 28 1.0 29 1.0
 27
 28
 29
 30 31 1.0 34 2.0
 31 32 2.0 33 1.0
 32 35 1.0 36 1.0
 33 37 1.0 38 1.0 39 1.0
 34
 35
 36
 37
 38
 39

